     8
  Step: 10000            Position(A)                                  Velocity(au)
Si       -0.02474348     0.01735411    -0.02199508     0.00003626    -0.00019716    -0.00019983
Si        1.36958891     1.38188126     1.40878070    -0.00006632    -0.00000823     0.00009596
Si        2.71110895     2.76263883    -0.03775530    -0.00016647    -0.00000445     0.00004617
Si        4.17059024     4.09807971     1.42610218     0.00009129     0.00010082    -0.00012610
Si        2.68424862    -0.00109800     2.77164641     0.00008522    -0.00009719    -0.00000240
Si        4.11933999     1.31815338     4.01025970    -0.00000124     0.00008030     0.00002744
Si        0.00517052     2.64835624     2.70702535    -0.00008788     0.00004064     0.00024667
Si        1.24597243     4.05591046     4.01721218     0.00010914     0.00008528    -0.00008789
